                                   MODFLOW 6
                U.S. GEOLOGICAL SURVEY MODULAR HYDROLOGIC MODEL
                            VERSION 6.5.0 05/23/2024

        MODFLOW 6 compiled Jun 21 2024 02:51:39 with GCC version 12.3.0

This software has been approved for release by the U.S. Geological 
Survey (USGS). Although the software has been subjected to rigorous 
review, the USGS reserves the right to update the software as needed 
pursuant to further analysis and review. No warranty, expressed or 
implied, is made by the USGS or the U.S. Government as to the 
functionality of the software and related material nor shall the 
fact of release constitute any such warranty. Furthermore, the 
software is released on condition that neither the USGS nor the U.S. 
Government shall be held liable for any damages resulting from its 
authorized or unauthorized use. Also refer to the USGS Water 
Resources Software User Rights Notice for complete use, copyright, 
and distribution information.


As a work of the United States Government, this USGS product is 
in the public domain within the United States. You can copy, 
modify, distribute, and perform the work, even for commercial 
purposes, all without asking permission. Additionally, USGS 
waives copyright and related rights in the work worldwide 
through CC0 1.0 Universal Public Domain Dedication 
(https://creativecommons.org/publicdomain/zero/1.0/).

The following GNU Lesser General Public License (LGPL) libraries
are used in this USGS product:

    SPARSKIT version 2.0
      ilut, luson, and qsplit 
      (https://www-users.cse.umn.edu/~saad/software/SPARSKIT/)

    RCM - Reverse Cuthill McKee Ordering
      (https://people.math.sc.edu/Burkardt/f_src/rcm/rcm.html)

    BLAS - Basic Linear Algebra Subprograms Level 1
      (https://people.math.sc.edu/Burkardt/f_src/blas1_d/blas1_d.html)

    SPARSEKIT - Sparse Matrix Utility Package
      amux, dperm, dvperm, rperm, and cperm
      (https://people.sc.fsu.edu/~jburkardt/f77_src/sparsekit/sparsekit.html)

The following BSD-3 License libraries are used in this USGS product:

    Modern Fortran DAG Library
      Copyright (c) 2018, Jacob Williams
      All rights reserved.
      (https://github.com/jacobwilliams/daglib)

MODFLOW 6 compiler options: -cpp -I macarm/obj_mf6 -iprefix
/opt/homebrew/Cellar/gcc@12/12.3.0/bin/../lib/gcc/12/gcc/aarch64-apple-darwin2
3/12/ -D__DYNAMIC__ -D __APPLE__ -fPIC -mmacosx-version-min=14.0.0
-mlittle-endian -mabi=lp64 -O2 -Wpedantic -Wcharacter-truncation -Wtabs
-Wline-truncation -Wunused-label -Wunused-variable -std=f2008 -fbacktrace
-ffpe-summary=overflow -ffpe-trap=overflow,zero,invalid -fall-intrinsics -J
macarm/mod_mf6

System command used to initiate simulation:
/opt/anaconda3/envs/geosci724/bin/mf6

MODFLOW was compiled using uniform precision.

Real Variables
  KIND: 8
  TINY (smallest non-zero value):    2.225074-308
  HUGE (largest value):    1.797693+308
  PRECISION: 15
  SIZE IN BITS: 64

Integer Variables
  KIND: 4
  HUGE (largest value): 2147483647
  SIZE IN BITS: 32

Long Integer Variables
  KIND: 8
  HUGE (largest value): 9223372036854775807
  SIZE IN BITS: 64

Logical Variables
  KIND: 4
  SIZE IN BITS: 32


 OPENED mfsim.nam
 FILE TYPE:NAM6               UNIT 1001   STATUS:OLD                 
 FORMAT:FORMATTED              ACCESS:SEQUENTIAL          
 ACTION:READ                

 # File generated by Flopy version 3.8.2 on 12/17/2024 at 16:23:40.

 OPENED sagehen.tdis
 FILE TYPE:TDIS6              UNIT 1002   STATUS:OLD                 
 FORMAT:FORMATTED              ACCESS:SEQUENTIAL          
 ACTION:READ                

 # File generated by Flopy version 3.8.2 on 12/17/2024 at 16:23:40.

 OPENED sagehen.nam
 FILE TYPE:GWF6               UNIT 1003   STATUS:OLD                 
 FORMAT:FORMATTED              ACCESS:SEQUENTIAL          
 ACTION:READ                

 # File generated by Flopy version 3.8.2 on 12/17/2024 at 16:23:40.

 OPENED sagehen.dis
 FILE TYPE:DIS6               UNIT 1004   STATUS:OLD                 
 FORMAT:FORMATTED              ACCESS:SEQUENTIAL          
 ACTION:READ                

 # File generated by Flopy version 3.8.2 on 12/17/2024 at 16:23:40.

 OPENED sagehen.npf
 FILE TYPE:NPF6               UNIT 1005   STATUS:OLD                 
 FORMAT:FORMATTED              ACCESS:SEQUENTIAL          
 ACTION:READ                

 # File generated by Flopy version 3.8.2 on 12/17/2024 at 16:23:40.

 OPENED sagehen.sto
 FILE TYPE:STO6      UNIT 1006   STATUS:OLD                 
 FORMAT:FORMATTED              ACCESS:SEQUENTIAL          
 ACTION:READ                


 OPENED sagehen.ic
 FILE TYPE:IC6                UNIT 1007   STATUS:OLD                 
 FORMAT:FORMATTED              ACCESS:SEQUENTIAL          
 ACTION:READ                

 # File generated by Flopy version 3.8.2 on 12/17/2024 at 16:23:40.

 OPENED sagehen.oc
 FILE TYPE:OC6       UNIT 1008   STATUS:OLD                 
 FORMAT:FORMATTED              ACCESS:SEQUENTIAL          
 ACTION:READ                


 OPENED sagehen.riv
 FILE TYPE:RIV6               UNIT 1009   STATUS:OLD                 
 FORMAT:FORMATTED              ACCESS:SEQUENTIAL          
 ACTION:READ                

 # File generated by Flopy version 3.8.2 on 12/17/2024 at 16:23:41.

 OPENED sagehen.uzf
 FILE TYPE:UZF6      UNIT 1010   STATUS:OLD                 
 FORMAT:FORMATTED              ACCESS:SEQUENTIAL          
 ACTION:READ                


 READING SIMULATION OPTIONS
    MAXIMUM NUMBER OF ERRORS THAT WILL BE STORED IS 1000
 END OF SIMULATION OPTIONS

 READING SIMULATION TIMING

 TDIS -- TEMPORAL DISCRETIZATION PACKAGE,
 VERSION 1 : 11/13/2014 - INPUT READ FROM MEMPATH: __INPUT__/SIM/TDIS                                
 PROCESSING TDIS OPTIONS
    SIMULATION TIME UNIT IS DAYS
 END OF TDIS OPTIONS
 PROCESSING TDIS DIMENSIONS
   12 STRESS PERIOD(S) IN SIMULATION
 END OF TDIS DIMENSIONS
 PROCESSING TDIS PERIODDATA


 STRESS PERIOD     LENGTH       TIME STEPS     MULTIPLIER FOR DELT
 ----------------------------------------------------------------------------
        1         31.00000         31                    1.000
        2         28.00000         28                    1.000
        3         31.00000         31                    1.000
        4         30.00000         30                    1.000
        5         31.00000         31                    1.000
        6         30.00000         30                    1.000
        7         31.00000         31                    1.000
        8         31.00000         31                    1.000
        9         30.00000         30                    1.000
       10         31.00000         31                    1.000
       11         30.00000         30                    1.000
       12         31.00000         31                    1.000
 END OF TDIS PERIODDATA
 END OF SIMULATION TIMING

 READING SIMULATION MODELS
    GWF6 model 1 will be created
 END OF SIMULATION MODELS

 READING SIMULATION EXCHANGES
 END OF SIMULATION EXCHANGES

 READING SOLUTIONGROUP

 Creating solution: SLN_1           

 OPENED sagehen.ims
 FILE TYPE:IMS   UNIT 1012   STATUS:OLD                 
 FORMAT:FORMATTED              ACCESS:SEQUENTIAL          
 ACTION:READ                

 END OF SOLUTIONGROUP

PROCESSING MODEL CONNECTIONS

 IMS -- ITERATIVE MODEL SOLUTION PACKAGE, VERSION 6, 4/28/2017
         INPUT READ FROM UNIT 1012
 # File generated by Flopy version 3.8.2 on 12/17/2024 at 16:23:40.

 PROCESSING IMS OPTIONS
 COMPLEX OPTION:
 DEFAULT SOLVER INPUT VALUES REFLECT STRONGLY NONLINEAR MODEL
 END OF IMS OPTIONS
 **UNDER-RELAXATION WILL BE USED***

 ***IMS LINEAR SOLVER WILL BE USED***

 IMSLINEAR -- UNSTRUCTURED LINEAR SOLUTION PACKAGE, VERSION 8, 04/28/2017
 An asymmetric matrix will be solved

 OUTER ITERATION CONVERGENCE CRITERION    (DVCLOSE) =    0.100000E+00
 MAXIMUM NUMBER OF OUTER ITERATIONS        (MXITER) = 100
 SOLVER PRINTOUT INDEX                     (IPRIMS) = 0
 NONLINEAR ITERATION METHOD            (NONLINMETH) = 3
 LINEAR SOLUTION METHOD                   (LINMETH) = 1
 UNDER-RELAXATION WEIGHT REDUCTION FACTOR   (THETA) =    0.800000E+00
 UNDER-RELAXATION WEIGHT INCREASE INCREMENT (KAPPA) =    0.100000E-03
 UNDER-RELAXATION PREVIOUS HISTORY FACTOR   (GAMMA) =    0.000000E+00
 UNDER-RELAXATION MOMENTUM TERM         (AMOMENTUM) =    0.000000E+00
 MAXIMUM NUMBER OF BACKTRACKS            (NUMTRACK) = 20
 BACKTRACKING TOLERANCE FACTOR               (BTOL) =    0.105000E+01
 BACKTRACKING REDUCTION FACTOR             (BREDUC) =    0.100000E+00
 BACKTRACKING RESIDUAL LIMIT              (RES_LIM) =    0.200000E-02

       SOLUTION BY THE BICONJUGATE-GRADIENT STABILIZED METHOD
 ------------------------------------------------------------------
 MAXIMUM OF 100 CALLS OF SOLUTION ROUTINE
 MAXIMUM OF 500 INTERNAL ITERATIONS PER CALL TO SOLUTION ROUTINE
 LINEAR ACCELERATION METHOD            = BCGS      
 MATRIX PRECONDITIONING TYPE           = INCOMPLETE LUT      
 MATRIX SCALING APPROACH               = NO SCALING          
 MATRIX REORDERING APPROACH            = ORIGINAL ORDERING        
 NUMBER OF ORTHOGONALIZATIONS          = 2
 HEAD CHANGE CRITERION FOR CLOSURE     =    0.10000E+00
 RESIDUAL CHANGE CRITERION FOR CLOSURE =    0.10000E+00
 RESIDUAL CONVERGENCE OPTION           = 0
 RESIDUAL CONVERGENCE NORM             = INFINITY NORM   
 RELAXATION FACTOR                     =    0.00000E+00
 NUMBER OF LEVELS                      =              5
 DROP TOLERANCE                        =    0.10000E-03



    Solving:  Stress period:     1    Time step:     1

1
 STRESS PERIOD NO. 1, LENGTH =   31.00000    
 ------------------------------------------
 NUMBER OF TIME STEPS = 31
 MULTIPLIER FOR DELT =     1.000
 INITIAL TIME STEP SIZE =   1.000000    

    Solving:  Stress period:     1    Time step:     2


    Solving:  Stress period:     1    Time step:     3


    Solving:  Stress period:     1    Time step:     4


    Solving:  Stress period:     1    Time step:     5


    Solving:  Stress period:     1    Time step:     6


    Solving:  Stress period:     1    Time step:     7


    Solving:  Stress period:     1    Time step:     8


    Solving:  Stress period:     1    Time step:     9


    Solving:  Stress period:     1    Time step:    10


    Solving:  Stress period:     1    Time step:    11


    Solving:  Stress period:     1    Time step:    12


    Solving:  Stress period:     1    Time step:    13


    Solving:  Stress period:     1    Time step:    14


    Solving:  Stress period:     1    Time step:    15


    Solving:  Stress period:     1    Time step:    16


    Solving:  Stress period:     1    Time step:    17


    Solving:  Stress period:     1    Time step:    18


    Solving:  Stress period:     1    Time step:    19


    Solving:  Stress period:     1    Time step:    20


    Solving:  Stress period:     1    Time step:    21


    Solving:  Stress period:     1    Time step:    22


    Solving:  Stress period:     1    Time step:    23


    Solving:  Stress period:     1    Time step:    24


    Solving:  Stress period:     1    Time step:    25


    Solving:  Stress period:     1    Time step:    26


    Solving:  Stress period:     1    Time step:    27


    Solving:  Stress period:     1    Time step:    28


    Solving:  Stress period:     1    Time step:    29


    Solving:  Stress period:     1    Time step:    30


    Solving:  Stress period:     1    Time step:    31


    Solving:  Stress period:     2    Time step:     1

1
 STRESS PERIOD NO. 2, LENGTH =   28.00000    
 ------------------------------------------
 NUMBER OF TIME STEPS = 28
 MULTIPLIER FOR DELT =     1.000
 INITIAL TIME STEP SIZE =   1.000000    

    Solving:  Stress period:     2    Time step:     2


    Solving:  Stress period:     2    Time step:     3


    Solving:  Stress period:     2    Time step:     4


    Solving:  Stress period:     2    Time step:     5


    Solving:  Stress period:     2    Time step:     6


    Solving:  Stress period:     2    Time step:     7


    Solving:  Stress period:     2    Time step:     8


    Solving:  Stress period:     2    Time step:     9


    Solving:  Stress period:     2    Time step:    10


    Solving:  Stress period:     2    Time step:    11


    Solving:  Stress period:     2    Time step:    12


    Solving:  Stress period:     2    Time step:    13


    Solving:  Stress period:     2    Time step:    14


    Solving:  Stress period:     2    Time step:    15


    Solving:  Stress period:     2    Time step:    16


    Solving:  Stress period:     2    Time step:    17


    Solving:  Stress period:     2    Time step:    18


    Solving:  Stress period:     2    Time step:    19


    Solving:  Stress period:     2    Time step:    20


    Solving:  Stress period:     2    Time step:    21


    Solving:  Stress period:     2    Time step:    22


    Solving:  Stress period:     2    Time step:    23


    Solving:  Stress period:     2    Time step:    24


    Solving:  Stress period:     2    Time step:    25


    Solving:  Stress period:     2    Time step:    26


    Solving:  Stress period:     2    Time step:    27


    Solving:  Stress period:     2    Time step:    28


    Solving:  Stress period:     3    Time step:     1

1
 STRESS PERIOD NO. 3, LENGTH =   31.00000    
 ------------------------------------------
 NUMBER OF TIME STEPS = 31
 MULTIPLIER FOR DELT =     1.000
 INITIAL TIME STEP SIZE =   1.000000    

    Solving:  Stress period:     3    Time step:     2


    Solving:  Stress period:     3    Time step:     3


    Solving:  Stress period:     3    Time step:     4


    Solving:  Stress period:     3    Time step:     5


    Solving:  Stress period:     3    Time step:     6


    Solving:  Stress period:     3    Time step:     7


    Solving:  Stress period:     3    Time step:     8


    Solving:  Stress period:     3    Time step:     9


    Solving:  Stress period:     3    Time step:    10


    Solving:  Stress period:     3    Time step:    11


    Solving:  Stress period:     3    Time step:    12


    Solving:  Stress period:     3    Time step:    13


    Solving:  Stress period:     3    Time step:    14


    Solving:  Stress period:     3    Time step:    15


    Solving:  Stress period:     3    Time step:    16


    Solving:  Stress period:     3    Time step:    17


    Solving:  Stress period:     3    Time step:    18


    Solving:  Stress period:     3    Time step:    19


    Solving:  Stress period:     3    Time step:    20


    Solving:  Stress period:     3    Time step:    21


    Solving:  Stress period:     3    Time step:    22


    Solving:  Stress period:     3    Time step:    23


    Solving:  Stress period:     3    Time step:    24


    Solving:  Stress period:     3    Time step:    25


    Solving:  Stress period:     3    Time step:    26


    Solving:  Stress period:     3    Time step:    27


    Solving:  Stress period:     3    Time step:    28


    Solving:  Stress period:     3    Time step:    29


    Solving:  Stress period:     3    Time step:    30


    Solving:  Stress period:     3    Time step:    31


    Solving:  Stress period:     4    Time step:     1

1
 STRESS PERIOD NO. 4, LENGTH =   30.00000    
 ------------------------------------------
 NUMBER OF TIME STEPS = 30
 MULTIPLIER FOR DELT =     1.000
 INITIAL TIME STEP SIZE =   1.000000    

    Solving:  Stress period:     4    Time step:     2


    Solving:  Stress period:     4    Time step:     3


    Solving:  Stress period:     4    Time step:     4


    Solving:  Stress period:     4    Time step:     5


    Solving:  Stress period:     4    Time step:     6


    Solving:  Stress period:     4    Time step:     7


    Solving:  Stress period:     4    Time step:     8


    Solving:  Stress period:     4    Time step:     9


    Solving:  Stress period:     4    Time step:    10


    Solving:  Stress period:     4    Time step:    11


    Solving:  Stress period:     4    Time step:    12


    Solving:  Stress period:     4    Time step:    13


    Solving:  Stress period:     4    Time step:    14


    Solving:  Stress period:     4    Time step:    15


    Solving:  Stress period:     4    Time step:    16


    Solving:  Stress period:     4    Time step:    17


    Solving:  Stress period:     4    Time step:    18


    Solving:  Stress period:     4    Time step:    19


    Solving:  Stress period:     4    Time step:    20


    Solving:  Stress period:     4    Time step:    21


    Solving:  Stress period:     4    Time step:    22


    Solving:  Stress period:     4    Time step:    23


    Solving:  Stress period:     4    Time step:    24


    Solving:  Stress period:     4    Time step:    25


    Solving:  Stress period:     4    Time step:    26


    Solving:  Stress period:     4    Time step:    27


    Solving:  Stress period:     4    Time step:    28


    Solving:  Stress period:     4    Time step:    29


    Solving:  Stress period:     4    Time step:    30


    Solving:  Stress period:     5    Time step:     1

1
 STRESS PERIOD NO. 5, LENGTH =   31.00000    
 ------------------------------------------
 NUMBER OF TIME STEPS = 31
 MULTIPLIER FOR DELT =     1.000
 INITIAL TIME STEP SIZE =   1.000000    

    Solving:  Stress period:     5    Time step:     2


    Solving:  Stress period:     5    Time step:     3


    Solving:  Stress period:     5    Time step:     4


    Solving:  Stress period:     5    Time step:     5


    Solving:  Stress period:     5    Time step:     6


    Solving:  Stress period:     5    Time step:     7


    Solving:  Stress period:     5    Time step:     8


    Solving:  Stress period:     5    Time step:     9


    Solving:  Stress period:     5    Time step:    10


    Solving:  Stress period:     5    Time step:    11


    Solving:  Stress period:     5    Time step:    12


    Solving:  Stress period:     5    Time step:    13


    Solving:  Stress period:     5    Time step:    14


    Solving:  Stress period:     5    Time step:    15


    Solving:  Stress period:     5    Time step:    16


    Solving:  Stress period:     5    Time step:    17


    Solving:  Stress period:     5    Time step:    18


    Solving:  Stress period:     5    Time step:    19


    Solving:  Stress period:     5    Time step:    20


    Solving:  Stress period:     5    Time step:    21


    Solving:  Stress period:     5    Time step:    22


    Solving:  Stress period:     5    Time step:    23


    Solving:  Stress period:     5    Time step:    24


    Solving:  Stress period:     5    Time step:    25


    Solving:  Stress period:     5    Time step:    26


    Solving:  Stress period:     5    Time step:    27


    Solving:  Stress period:     5    Time step:    28


    Solving:  Stress period:     5    Time step:    29


    Solving:  Stress period:     5    Time step:    30


    Solving:  Stress period:     5    Time step:    31


    Solving:  Stress period:     6    Time step:     1

1
 STRESS PERIOD NO. 6, LENGTH =   30.00000    
 ------------------------------------------
 NUMBER OF TIME STEPS = 30
 MULTIPLIER FOR DELT =     1.000
 INITIAL TIME STEP SIZE =   1.000000    

    Solving:  Stress period:     6    Time step:     2


    Solving:  Stress period:     6    Time step:     3


    Solving:  Stress period:     6    Time step:     4


    Solving:  Stress period:     6    Time step:     5


    Solving:  Stress period:     6    Time step:     6


    Solving:  Stress period:     6    Time step:     7


    Solving:  Stress period:     6    Time step:     8


    Solving:  Stress period:     6    Time step:     9


    Solving:  Stress period:     6    Time step:    10


    Solving:  Stress period:     6    Time step:    11


    Solving:  Stress period:     6    Time step:    12


    Solving:  Stress period:     6    Time step:    13


    Solving:  Stress period:     6    Time step:    14


    Solving:  Stress period:     6    Time step:    15


    Solving:  Stress period:     6    Time step:    16


    Solving:  Stress period:     6    Time step:    17


    Solving:  Stress period:     6    Time step:    18


    Solving:  Stress period:     6    Time step:    19


    Solving:  Stress period:     6    Time step:    20


    Solving:  Stress period:     6    Time step:    21


    Solving:  Stress period:     6    Time step:    22


    Solving:  Stress period:     6    Time step:    23


    Solving:  Stress period:     6    Time step:    24


    Solving:  Stress period:     6    Time step:    25


    Solving:  Stress period:     6    Time step:    26


    Solving:  Stress period:     6    Time step:    27


    Solving:  Stress period:     6    Time step:    28


    Solving:  Stress period:     6    Time step:    29


    Solving:  Stress period:     6    Time step:    30


    Solving:  Stress period:     7    Time step:     1

1
 STRESS PERIOD NO. 7, LENGTH =   31.00000    
 ------------------------------------------
 NUMBER OF TIME STEPS = 31
 MULTIPLIER FOR DELT =     1.000
 INITIAL TIME STEP SIZE =   1.000000    

    Solving:  Stress period:     7    Time step:     2


    Solving:  Stress period:     7    Time step:     3


    Solving:  Stress period:     7    Time step:     4


    Solving:  Stress period:     7    Time step:     5


    Solving:  Stress period:     7    Time step:     6


    Solving:  Stress period:     7    Time step:     7


    Solving:  Stress period:     7    Time step:     8


    Solving:  Stress period:     7    Time step:     9


    Solving:  Stress period:     7    Time step:    10


    Solving:  Stress period:     7    Time step:    11


    Solving:  Stress period:     7    Time step:    12


    Solving:  Stress period:     7    Time step:    13


    Solving:  Stress period:     7    Time step:    14


    Solving:  Stress period:     7    Time step:    15


    Solving:  Stress period:     7    Time step:    16


    Solving:  Stress period:     7    Time step:    17


    Solving:  Stress period:     7    Time step:    18


    Solving:  Stress period:     7    Time step:    19


    Solving:  Stress period:     7    Time step:    20


    Solving:  Stress period:     7    Time step:    21


    Solving:  Stress period:     7    Time step:    22


    Solving:  Stress period:     7    Time step:    23


    Solving:  Stress period:     7    Time step:    24


    Solving:  Stress period:     7    Time step:    25


    Solving:  Stress period:     7    Time step:    26


    Solving:  Stress period:     7    Time step:    27


    Solving:  Stress period:     7    Time step:    28


    Solving:  Stress period:     7    Time step:    29


    Solving:  Stress period:     7    Time step:    30


    Solving:  Stress period:     7    Time step:    31


    Solving:  Stress period:     8    Time step:     1

1
 STRESS PERIOD NO. 8, LENGTH =   31.00000    
 ------------------------------------------
 NUMBER OF TIME STEPS = 31
 MULTIPLIER FOR DELT =     1.000
 INITIAL TIME STEP SIZE =   1.000000    

    Solving:  Stress period:     8    Time step:     2


    Solving:  Stress period:     8    Time step:     3


    Solving:  Stress period:     8    Time step:     4


    Solving:  Stress period:     8    Time step:     5


    Solving:  Stress period:     8    Time step:     6


    Solving:  Stress period:     8    Time step:     7


    Solving:  Stress period:     8    Time step:     8


    Solving:  Stress period:     8    Time step:     9


    Solving:  Stress period:     8    Time step:    10


    Solving:  Stress period:     8    Time step:    11


    Solving:  Stress period:     8    Time step:    12


    Solving:  Stress period:     8    Time step:    13


    Solving:  Stress period:     8    Time step:    14


    Solving:  Stress period:     8    Time step:    15


    Solving:  Stress period:     8    Time step:    16


    Solving:  Stress period:     8    Time step:    17


    Solving:  Stress period:     8    Time step:    18


    Solving:  Stress period:     8    Time step:    19


    Solving:  Stress period:     8    Time step:    20


    Solving:  Stress period:     8    Time step:    21


    Solving:  Stress period:     8    Time step:    22


    Solving:  Stress period:     8    Time step:    23


    Solving:  Stress period:     8    Time step:    24


    Solving:  Stress period:     8    Time step:    25


    Solving:  Stress period:     8    Time step:    26


    Solving:  Stress period:     8    Time step:    27


    Solving:  Stress period:     8    Time step:    28


    Solving:  Stress period:     8    Time step:    29


    Solving:  Stress period:     8    Time step:    30


    Solving:  Stress period:     8    Time step:    31


    Solving:  Stress period:     9    Time step:     1

1
 STRESS PERIOD NO. 9, LENGTH =   30.00000    
 ------------------------------------------
 NUMBER OF TIME STEPS = 30
 MULTIPLIER FOR DELT =     1.000
 INITIAL TIME STEP SIZE =   1.000000    

    Solving:  Stress period:     9    Time step:     2


    Solving:  Stress period:     9    Time step:     3


    Solving:  Stress period:     9    Time step:     4


    Solving:  Stress period:     9    Time step:     5


    Solving:  Stress period:     9    Time step:     6


    Solving:  Stress period:     9    Time step:     7


    Solving:  Stress period:     9    Time step:     8


    Solving:  Stress period:     9    Time step:     9


    Solving:  Stress period:     9    Time step:    10


    Solving:  Stress period:     9    Time step:    11


    Solving:  Stress period:     9    Time step:    12


    Solving:  Stress period:     9    Time step:    13


    Solving:  Stress period:     9    Time step:    14


    Solving:  Stress period:     9    Time step:    15


    Solving:  Stress period:     9    Time step:    16


    Solving:  Stress period:     9    Time step:    17


    Solving:  Stress period:     9    Time step:    18


    Solving:  Stress period:     9    Time step:    19


    Solving:  Stress period:     9    Time step:    20


    Solving:  Stress period:     9    Time step:    21


    Solving:  Stress period:     9    Time step:    22


    Solving:  Stress period:     9    Time step:    23


    Solving:  Stress period:     9    Time step:    24


    Solving:  Stress period:     9    Time step:    25


    Solving:  Stress period:     9    Time step:    26


    Solving:  Stress period:     9    Time step:    27


    Solving:  Stress period:     9    Time step:    28


    Solving:  Stress period:     9    Time step:    29


    Solving:  Stress period:     9    Time step:    30


    Solving:  Stress period:    10    Time step:     1

1
 STRESS PERIOD NO. 10, LENGTH =   31.00000    
 ------------------------------------------
 NUMBER OF TIME STEPS = 31
 MULTIPLIER FOR DELT =     1.000
 INITIAL TIME STEP SIZE =   1.000000    

    Solving:  Stress period:    10    Time step:     2


    Solving:  Stress period:    10    Time step:     3


    Solving:  Stress period:    10    Time step:     4


    Solving:  Stress period:    10    Time step:     5


    Solving:  Stress period:    10    Time step:     6


    Solving:  Stress period:    10    Time step:     7


    Solving:  Stress period:    10    Time step:     8


    Solving:  Stress period:    10    Time step:     9


    Solving:  Stress period:    10    Time step:    10


    Solving:  Stress period:    10    Time step:    11


    Solving:  Stress period:    10    Time step:    12


    Solving:  Stress period:    10    Time step:    13


    Solving:  Stress period:    10    Time step:    14


    Solving:  Stress period:    10    Time step:    15


    Solving:  Stress period:    10    Time step:    16


    Solving:  Stress period:    10    Time step:    17


    Solving:  Stress period:    10    Time step:    18


    Solving:  Stress period:    10    Time step:    19


    Solving:  Stress period:    10    Time step:    20


    Solving:  Stress period:    10    Time step:    21


    Solving:  Stress period:    10    Time step:    22


    Solving:  Stress period:    10    Time step:    23


    Solving:  Stress period:    10    Time step:    24


    Solving:  Stress period:    10    Time step:    25


    Solving:  Stress period:    10    Time step:    26


    Solving:  Stress period:    10    Time step:    27


    Solving:  Stress period:    10    Time step:    28


    Solving:  Stress period:    10    Time step:    29


    Solving:  Stress period:    10    Time step:    30


    Solving:  Stress period:    10    Time step:    31


    Solving:  Stress period:    11    Time step:     1

1
 STRESS PERIOD NO. 11, LENGTH =   30.00000    
 ------------------------------------------
 NUMBER OF TIME STEPS = 30
 MULTIPLIER FOR DELT =     1.000
 INITIAL TIME STEP SIZE =   1.000000    

    Solving:  Stress period:    11    Time step:     2


    Solving:  Stress period:    11    Time step:     3


    Solving:  Stress period:    11    Time step:     4


    Solving:  Stress period:    11    Time step:     5


    Solving:  Stress period:    11    Time step:     6


    Solving:  Stress period:    11    Time step:     7


    Solving:  Stress period:    11    Time step:     8


    Solving:  Stress period:    11    Time step:     9


    Solving:  Stress period:    11    Time step:    10


    Solving:  Stress period:    11    Time step:    11


    Solving:  Stress period:    11    Time step:    12


    Solving:  Stress period:    11    Time step:    13


    Solving:  Stress period:    11    Time step:    14


    Solving:  Stress period:    11    Time step:    15


    Solving:  Stress period:    11    Time step:    16


    Solving:  Stress period:    11    Time step:    17


    Solving:  Stress period:    11    Time step:    18


    Solving:  Stress period:    11    Time step:    19


    Solving:  Stress period:    11    Time step:    20


    Solving:  Stress period:    11    Time step:    21


    Solving:  Stress period:    11    Time step:    22


    Solving:  Stress period:    11    Time step:    23


    Solving:  Stress period:    11    Time step:    24


    Solving:  Stress period:    11    Time step:    25


    Solving:  Stress period:    11    Time step:    26


    Solving:  Stress period:    11    Time step:    27


    Solving:  Stress period:    11    Time step:    28


    Solving:  Stress period:    11    Time step:    29


    Solving:  Stress period:    11    Time step:    30


    Solving:  Stress period:    12    Time step:     1

1
 STRESS PERIOD NO. 12, LENGTH =   31.00000    
 ------------------------------------------
 NUMBER OF TIME STEPS = 31
 MULTIPLIER FOR DELT =     1.000
 INITIAL TIME STEP SIZE =   1.000000    

    Solving:  Stress period:    12    Time step:     2


    Solving:  Stress period:    12    Time step:     3


    Solving:  Stress period:    12    Time step:     4


    Solving:  Stress period:    12    Time step:     5


    Solving:  Stress period:    12    Time step:     6


    Solving:  Stress period:    12    Time step:     7


    Solving:  Stress period:    12    Time step:     8


    Solving:  Stress period:    12    Time step:     9


    Solving:  Stress period:    12    Time step:    10


    Solving:  Stress period:    12    Time step:    11


    Solving:  Stress period:    12    Time step:    12


    Solving:  Stress period:    12    Time step:    13


    Solving:  Stress period:    12    Time step:    14


    Solving:  Stress period:    12    Time step:    15


    Solving:  Stress period:    12    Time step:    16


    Solving:  Stress period:    12    Time step:    17


    Solving:  Stress period:    12    Time step:    18


    Solving:  Stress period:    12    Time step:    19


    Solving:  Stress period:    12    Time step:    20


    Solving:  Stress period:    12    Time step:    21


    Solving:  Stress period:    12    Time step:    22


    Solving:  Stress period:    12    Time step:    23


    Solving:  Stress period:    12    Time step:    24


    Solving:  Stress period:    12    Time step:    25


    Solving:  Stress period:    12    Time step:    26


    Solving:  Stress period:    12    Time step:    27


    Solving:  Stress period:    12    Time step:    28


    Solving:  Stress period:    12    Time step:    29


    Solving:  Stress period:    12    Time step:    30


    Solving:  Stress period:    12    Time step:    31


 MEMORY MANAGER TOTAL STORAGE BY DATA TYPE, IN MEGABYTES
 -------------------------------
                    ALLOCATED   
 DATA TYPE           MEMORY     
 -------------------------------
 Character        7.07200000E-03
 Logical          4.40000000E-05
 Integer          1.2373640     
 Real             176.11517     
 -------------------------------
 Total            177.35965     
 Virtual          0.0000000     
 -------------------------------



 Run end date and time (yyyy/mm/dd hh:mm:ss): 2024/12/17 16:23:55
 Elapsed run time: 13.774 Seconds

WARNING REPORT:

  1. OPTIONS BLOCK VARIABLE 'SIMULATE_GWSEEP' IN FILE 'sagehen.uzf' WAS
     DEPRECATED IN VERSION 6.5.0. USE DRN PACKAGE TO SIMULATE GROUNDWATER
     DISCHARGE TO LAND SURFACE INSTEAD.
 Normal termination of simulation.
